Version 4.1
SHEET 1 1252 680
WIRE -80 384 -352 384
WIRE 32 384 -80 384
WIRE 336 384 112 384
WIRE 672 384 480 384
WIRE 960 384 752 384
WIRE 1200 384 960 384
WIRE -352 400 -352 384
WIRE 960 400 960 384
WIRE 1200 400 1200 384
WIRE -80 416 -80 384
WIRE -352 496 -352 480
WIRE 960 496 960 480
WIRE 1200 496 1200 480
WIRE -80 512 -80 480
FLAG 48 208 0
FLAG 48 128 Vcc
FLAG 416 320 Vcc
FLAG 416 448 0
FLAG -352 496 0
FLAG 1200 496 0
FLAG -80 512 0
FLAG 960 496 0
SYMBOL Polarizacao 400 384 R0
SYMATTR InstName X1
SYMBOL Voltage -352 384 R0
WINDOW 123 24 118 Left 2
WINDOW 39 24 140 Left 2
SYMATTR Value2 AC 1
SYMATTR SpiceLine Rser=50
SYMATTR InstName V1
SYMATTR Value ""
SYMBOL Res 1184 384 R0
SYMATTR InstName R1
SYMATTR Value 50
SYMBOL Voltage 48 112 R0
SYMATTR InstName V2
SYMATTR Value 10
SYMBOL ind 656 400 R270
WINDOW 0 32 56 VTop 2
WINDOW 3 5 56 VBottom 2
SYMATTR InstName L2
SYMATTR Value 1.365n
SYMBOL ind 944 384 R0
SYMATTR InstName L3
SYMATTR Value 2.256n
SYMBOL cap -96 416 R0
SYMATTR InstName C1
SYMATTR Value 0.5799p
SYMBOL ind 16 400 R270
WINDOW 0 32 56 VTop 2
WINDOW 3 5 56 VBottom 2
SYMATTR InstName L1
SYMATTR Value 508.3p
TEXT 416 128 Left 2 !.net I(R1) V1
TEXT 696 136 Left 2 !.ac dec 10k 1G 7G
