Version 4
SHEET 1 1316 680
WIRE -16 448 -288 448
WIRE 160 448 -16 448
WIRE 400 448 224 448
WIRE 720 448 544 448
WIRE 1024 448 800 448
WIRE 1264 448 1024 448
WIRE -288 464 -288 448
WIRE 1264 464 1264 448
WIRE 1024 480 1024 448
WIRE -16 496 -16 448
WIRE -288 560 -288 544
WIRE 1264 560 1264 544
FLAG 112 272 0
FLAG 112 192 Vcc
FLAG 480 384 Vcc
FLAG 480 512 0
FLAG -288 560 0
FLAG 1264 560 0
FLAG -16 576 0
FLAG 1024 560 0
SYMBOL Polarizacao 464 448 R0
SYMATTR InstName X1
SYMBOL Voltage -288 448 R0
WINDOW 123 24 118 Left 2
WINDOW 39 24 140 Left 2
SYMATTR Value2 AC 1
SYMATTR SpiceLine Rser=50
SYMATTR InstName V1
SYMATTR Value ""
SYMBOL Res 1248 448 R0
SYMATTR InstName R1
SYMATTR Value 50
SYMBOL Voltage 112 176 R0
SYMATTR InstName V2
SYMATTR Value 10
SYMBOL ind -32 480 R0
SYMATTR InstName L1
SYMATTR Value 0.765n
SYMBOL Cap 224 432 R90
WINDOW 0 0 32 VBottom 2
WINDOW 3 32 32 VTop 2
SYMATTR InstName C1
SYMATTR Value 1.206p
SYMBOL ind 1008 464 R0
SYMATTR InstName L2
SYMATTR Value 2.43n
SYMBOL ind 816 432 R90
WINDOW 0 5 56 VBottom 2
WINDOW 3 32 56 VTop 2
SYMATTR InstName L3
SYMATTR Value 1.79n
TEXT 480 192 Left 2 !.net I(R1) V1
TEXT 760 200 Left 2 !.ac dec 10k 1G 7G
