Version 4
SHEET 1 1316 680
WIRE -16 400 -288 400
WIRE 160 400 -16 400
WIRE 400 400 256 400
WIRE 704 400 544 400
WIRE 1024 400 800 400
WIRE 1264 400 1024 400
WIRE -288 416 -288 400
WIRE 1264 416 1264 400
WIRE 1024 432 1024 400
WIRE -16 448 -16 400
WIRE -288 512 -288 496
WIRE 1264 512 1264 496
FLAG 112 224 0
FLAG 112 144 Vcc
FLAG 480 336 Vcc
FLAG 480 464 0
FLAG -288 512 0
FLAG 1264 512 0
FLAG 16 448 0
FLAG 16 544 0
FLAG 704 432 0
FLAG 800 432 0
FLAG 1056 528 0
FLAG 1056 432 0
FLAG 160 432 0
FLAG 256 432 0
SYMBOL Polarizacao 464 400 R0
SYMATTR InstName X1
SYMBOL Voltage -288 400 R0
WINDOW 123 24 118 Left 2
WINDOW 39 24 140 Left 2
SYMATTR Value2 AC 1
SYMATTR SpiceLine Rser=50
SYMATTR InstName V1
SYMATTR Value ""
SYMBOL Res 1248 400 R0
SYMATTR InstName R1
SYMATTR Value 50
SYMBOL Voltage 112 128 R0
SYMATTR InstName V2
SYMATTR Value 10
SYMBOL tline 0 496 R90
SYMATTR InstName T1
SYMATTR Value Td=46.9p Z0=50
SYMBOL tline 1040 480 R90
SYMATTR InstName T2
SYMATTR Value Td=42.99p Z0=50
SYMBOL tline 752 416 R180
SYMATTR InstName T3
SYMATTR Value Td=56.48p Z0=50
SYMBOL tline 208 416 R0
SYMATTR InstName T4
SYMATTR Value Td=0.9p Z0=50
TEXT 480 144 Left 2 !.net I(R1) V1
TEXT 760 152 Left 2 !.ac dec 10k 1G 7G
