Version 4
SHEET 1 1252 680
WIRE -80 400 -352 400
WIRE 96 400 -80 400
WIRE 336 400 192 400
WIRE 640 400 480 400
WIRE 960 400 736 400
WIRE 1200 400 960 400
WIRE -352 416 -352 400
WIRE 1200 416 1200 400
WIRE 960 432 960 400
WIRE -80 448 -80 400
WIRE -352 512 -352 496
WIRE 1200 512 1200 496
FLAG 48 224 0
FLAG 48 144 Vcc
FLAG 416 336 Vcc
FLAG 416 464 0
FLAG -352 512 0
FLAG 1200 512 0
FLAG -48 448 0
FLAG -48 544 0
FLAG 640 432 0
FLAG 736 432 0
FLAG 992 528 0
FLAG 992 432 0
FLAG 96 432 0
FLAG 192 432 0
SYMBOL Polarizacao 400 400 R0
SYMATTR InstName X1
SYMBOL Voltage -352 400 R0
WINDOW 123 24 118 Left 2
WINDOW 39 24 140 Left 2
SYMATTR Value2 AC 1
SYMATTR SpiceLine Rser=50
SYMATTR InstName V1
SYMATTR Value ""
SYMBOL Res 1184 400 R0
SYMATTR InstName R1
SYMATTR Value 50
SYMBOL Voltage 48 128 R0
SYMATTR InstName V2
SYMATTR Value 10
SYMBOL tline -64 496 R90
SYMATTR InstName T1
SYMATTR Value Td=46.75p Z0=50
SYMBOL tline 976 480 R90
SYMATTR InstName T2
SYMATTR Value Td=43.25p Z0=50
SYMBOL tline 688 416 R180
SYMATTR InstName T3
SYMATTR Value Td=56.25p Z0=50
SYMBOL tline 144 416 R0
SYMATTR InstName T4
SYMATTR Value Td=0.75p Z0=50
TEXT 416 144 Left 2 !.net I(R1) V1
TEXT 696 152 Left 2 !.ac dec 10k 1G 7G
