Version 4.1
SHEET 1 4244 2468
WIRE 1424 -368 1424 -384
WIRE 1424 -208 1424 -288
WIRE 176 -112 176 -144
WIRE 704 -112 704 -144
WIRE 176 16 176 -32
WIRE 256 16 176 16
WIRE 704 16 704 -32
WIRE 704 16 608 16
WIRE 176 80 176 16
WIRE 272 128 176 128
WIRE 128 160 16 160
WIRE 704 160 704 16
WIRE 768 208 704 208
WIRE 32 240 -32 240
WIRE 176 240 176 176
WIRE 176 240 96 240
WIRE 272 240 176 240
WIRE 432 240 272 240
WIRE 576 240 496 240
WIRE 656 240 576 240
WIRE 768 256 768 208
WIRE 768 256 704 256
WIRE 272 272 272 240
WIRE 576 288 576 240
WIRE 704 368 704 256
WIRE -1520 416 -1520 384
WIRE 272 416 272 352
WIRE 576 416 576 368
WIRE -1216 480 -1216 416
WIRE -1072 480 -1072 416
WIRE -1520 528 -1520 496
WIRE -1440 528 -1520 528
WIRE -1520 560 -1520 528
WIRE -1216 640 -1216 560
WIRE -1072 640 -1072 560
WIRE -1520 672 -1520 640
FLAG -32 240 Vin
IOPIN -32 240 In
FLAG -1440 528 0
FLAG -1520 384 Vdd
IOPIN -1520 384 Out
FLAG -1520 672 Vss
IOPIN -1520 672 Out
FLAG 16 160 V_bias_CG
IOPIN 16 160 In
FLAG 272 416 Vss
IOPIN 272 416 In
FLAG 272 128 Vss
IOPIN 272 128 In
FLAG 704 368 Vss
IOPIN 704 368 In
FLAG 176 -144 Vdd
IOPIN 176 -144 In
FLAG 704 -144 Vdd
IOPIN 704 -144 In
FLAG -1216 640 Vss
IOPIN -1216 640 In
FLAG -1216 416 V_bias_CG
IOPIN -1216 416 Out
FLAG 256 16 Vop
IOPIN 256 16 Out
FLAG 608 16 Von
IOPIN 608 16 Out
FLAG 576 416 V_bias_CS
IOPIN 576 416 In
FLAG -1072 416 V_bias_CS
IOPIN -1072 416 Out
FLAG -1072 640 Vss
IOPIN -1072 640 In
FLAG 1424 -208 0
FLAG 1424 -464 Vin
IOPIN 1424 -464 In
FLAG 576 240 V_G_CS
FLAG 272 240 V_S_CG
DATAFLAG 192 240 ""
SYMBOL voltage -1520 400 R0
WINDOW 123 0 0 Left 0
WINDOW 39 0 0 Left 0
SYMATTR InstName V1
SYMATTR Value 2.5
SYMBOL voltage -1520 656 R180
WINDOW 0 24 96 Left 2
WINDOW 3 24 16 Left 2
WINDOW 123 0 0 Left 0
WINDOW 39 0 0 Left 0
SYMATTR InstName V2
SYMATTR Value 0
SYMBOL current 272 272 R0
WINDOW 123 0 0 Left 0
WINDOW 39 0 0 Left 0
SYMATTR InstName I1
SYMATTR Value 0.8333m
SYMBOL res 160 -128 R0
SYMATTR InstName R1
SYMATTR Value 280
SYMBOL res 688 -128 R0
SYMATTR InstName R2
SYMATTR Value 1k
SYMBOL voltage -1216 464 R0
WINDOW 123 0 0 Left 0
WINDOW 39 0 0 Left 0
SYMATTR InstName V3
SYMATTR Value 1.5
SYMBOL cap 96 224 R90
WINDOW 0 0 32 VBottom 2
WINDOW 3 32 32 VTop 2
SYMATTR InstName C1
SYMATTR Value 10n
SYMBOL cap 496 224 R90
WINDOW 0 0 32 VBottom 2
WINDOW 3 32 32 VTop 2
SYMATTR InstName C2
SYMATTR Value 10n
SYMBOL voltage -1072 464 R0
WINDOW 123 0 0 Left 0
WINDOW 39 0 0 Left 0
SYMATTR InstName V4
SYMATTR Value 0.67
SYMBOL nmos4 656 160 R0
SYMATTR InstName M2
SYMATTR Value NMOS-BSIM
SYMATTR Value2 l=350n w=87.7u
SYMBOL nmos4 128 80 R0
SYMATTR InstName M1
SYMATTR Value NMOS-BSIM
SYMATTR Value2 l=350n w=290u
SYMBOL voltage 1424 -384 R0
WINDOW 123 0 0 Left 0
WINDOW 39 24 44 Left 2
SYMATTR InstName V5
SYMATTR Value SINE(0 10m 1G)
SYMBOL res 1408 -480 R0
SYMATTR InstName R3
SYMATTR Value 50
SYMBOL res 560 272 R0
SYMATTR InstName R4
SYMATTR Value 1k
TEXT -976 1168 Left 2 !*BSIM3_035.lib\n*Speed parameters SN and SP\n.PARAM SN=0 SP=0; Un-comment this command for use with only typical models\n.MODEL NMOS-BSIM NMOS LEVEL = 49\n+VERSION = 3.1 TNOM = 27 TOX = {7.8E-9/(1+SN/20)}\n+XJ = 1E-07 NCH = 2.18E+17 VTH0 = {0.48-SN/10}\n+K1 = 6.07E-01 K2 = 1.24E-03 K3 = 9.68E+01\n+K3B = -9.84E+00 W0 = 2.02E-05 NLX = 1.62E-07\n+DVT0W = 0 DVT1W = 0 DVT2W = 0\n+DVT0 = 2.87E+00 DVT1 = 5.86E-01 DVT2 = -1.26E-01\n+U0 = {360*(1+SN/20)**2} UA = -8.48E-10 UB = 2.27E-18\n+UC = 3.27E-11 VSAT = 1.87E+05 A0 = 1.22E+00\n+AGS = 2.06E-01 B0 = 9.60E-07 B1 = 4.95E-06\n+KETA = -1.67E-04 A1 = 0 A2 = 3.49E-01\n+RDSW = 8.18E+02 PRWG = 2.35E-02 PRWB = -8.12E-02\n+WR = 9.98E-01 WINT = 1.55E-07 LINT = 4.51E-10\n+DWG = -4.27E-09\n+DWB = 4.07E-09 VOFF = -4.14E-02 NFACTOR = 1.61E+00\n+CIT = 0 CDSC = 2.39E-04 CDSCD = 0.00E+00\n+CDSCB = 0 ETA0 = 1 ETAB = -1.99E-01\n+DSUB = 1 PCLM = 1.32E+00 PDIBLC1 = 2.42E-04\n+PDIBLC2 = 8.27E-03 PDIBLCB = -9.99E-04 DROUT = 9.72E-04\n+PSCBE1 = 7.24E+08 PSCBE2 = 9.96E-04 PVAG = 1.00E-02\n+DELTA = 1.01E-02 RSH = 3.33E+00 MOBMOD = 1\n+PRT = 0 UTE = -1.5 KT1 = -1.11E-01\n+KT1L = 0 KT2 = 2.22E-02 UA1 = 4.34E-09\n+UB1 = -7.56E-18 UC1 = -5.62E-11 AT = 3.31E+04\n+WL = 0 WLN = 9.95E-01 WW = 0\n+WWN = 1.00E+00 WWL = 0 LL = 0\n+LLN = 1 LW = 0 LWN = 1\n+LWL = 0 CAPMOD = 2 XPART = 0.5\n+CGDO = 2.76E-10 CGSO = 2.76E-10 CGBO = 1.00E-12\n+CJ = {9e-4/(1+SN/20)} PB = 7.95E-01 MJ = 3.53E-01\n+CJSW = {2.8e-10/(1+SN/20)} PBSW = 7.98E-01 MJSW = 1.73E-01\n+CJSWG = 1.81E-10 PBSWG = 7.96E-01 MJSWG = 1.74E-01\n+CF = 0 PVTH0 = -1.80E-02 PRDSW = -7.56E+01\n+PK2 = 4.48E-05 WKETA = -1.33E-03 LKETA = -8.91E-03
TEXT -1720 176 Left 2 ;Voltage sources
TEXT -960 2224 Left 2 ;.op
TEXT -1984 1144 Left 2 ;*BSIM3_035.lib\n*Speed parameters SN and SP\n*.PARAM SN=0 SP=0; Un-comment this command for use with only typical models\n.MODEL NMOS-BSIM NMOS LEVEL = 49\n+VERSION = 3.1 TNOM = 27 TOX = {7.8E-9/(1+SN/20)}\n+XJ = 1E-07 NCH = 2.18E+17 VTH0 = {0.48-SN/10}\n+K1 = 6.07E-01 K2 = 1.24E-03 K3 = 9.68E+01\n+K3B = -9.84E+00 W0 = 2.02E-05 NLX = 1.62E-07\n+DVT0W = 0 DVT1W = 0 DVT2W = 0\n+DVT0 = 2.87E+00 DVT1 = 5.86E-01 DVT2 = -1.26E-01\n+U0 = {360*(1+SN/20)**2} UA = -8.48E-10 UB = 2.27E-18\n+UC = 3.27E-11 VSAT = 1.87E+05 A0 = 1.22E+00\n+AGS = 2.06E-01 B0 = 9.60E-07 B1 = 4.95E-06\n+KETA = -1.67E-04 A1 = 0 A2 = 3.49E-01\n+RDSW = 8.18E+02 PRWG = 2.35E-02 PRWB = -8.12E-02\n+WR = 9.98E-01 WINT = 1.55E-07 LINT = 4.51E-10\n+DWG = -4.27E-09\n+DWB = 4.07E-09 VOFF = -4.14E-02 NFACTOR = 1.61E+00\n+CIT = 0 CDSC = 2.39E-04 CDSCD = 0.00E+00\n+CDSCB = 0 ETA0 = 1 ETAB = -1.99E-01\n+DSUB = 1 PCLM = 1.32E+00 PDIBLC1 = 2.42E-04\n+PDIBLC2 = 8.27E-03 PDIBLCB = -9.99E-04 DROUT = 9.72E-04\n+PSCBE1 = 7.24E+08 PSCBE2 = 9.96E-04 PVAG = 1.00E-02\n+DELTA = 1.01E-02 RSH = 3.33E+00 MOBMOD = 1\n+PRT = 0 UTE = -1.5 KT1 = -1.11E-01\n+KT1L = 0 KT2 = 2.22E-02 UA1 = 4.34E-09\n+UB1 = -7.56E-18 UC1 = -5.62E-11 AT = 3.31E+04\n+WL = 0 WLN = 9.95E-01 WW = 0\n+WWN = 1.00E+00 WWL = 0 LL = 0\n+LLN = 1 LW = 0 LWN = 1\n+LWL = 0 CAPMOD = 2 XPART = 0.5\n+CGDO = 2.76E-10 CGSO = 2.76E-10 CGBO = 1.00E-12\n+CJ = {9e-4/(1+SN/20)} PB = 7.95E-01 MJ = 3.53E-01\n+CJSW = {2.8e-10/(1+SN/20)} PBSW = 7.98E-01 MJSW = 1.73E-01\n+CJSWG = 1.81E-10 PBSWG = 7.96E-01 MJSWG = 1.74E-01\n+CF = 0 PVTH0 = -1.80E-02 PRDSW = -7.56E+01\n+PK2 = 4.48E-05 WKETA = -1.33E-03 LKETA = -8.91E-03
TEXT -1824 2360 Left 2 ;Include
TEXT -1432 2360 Left 2 !.options logopinfo
TEXT -960 2304 Left 2 !.tran 0 105n 100n
TEXT -1136 216 Left 2 !.ic V(V_G_CS)=0.67
TEXT -1144 176 Left 2 !.ic V(V_S_CG)=0.6958
RECTANGLE Normal -784 1008 -1872 96 2
RECTANGLE Normal -80 2464 -2128 1040 2
