Version 4
SHEET 1 880 680
WIRE 272 368 -160 368
WIRE 816 368 416 368
WIRE -160 384 -160 368
WIRE 816 384 816 368
WIRE -160 480 -160 464
WIRE 816 480 816 464
FLAG -16 192 0
FLAG -16 112 Vcc
FLAG 352 304 Vcc
FLAG 352 432 0
FLAG -160 480 0
FLAG 816 480 0
SYMBOL Polarizacao 336 368 R0
SYMATTR InstName X1
SYMBOL Voltage -160 368 R0
WINDOW 123 24 118 Left 2
WINDOW 39 24 140 Left 2
SYMATTR InstName V1
SYMATTR Value ""
SYMATTR Value2 AC 1
SYMATTR SpiceLine Rser=50
SYMBOL Res 800 368 R0
SYMATTR InstName R1
SYMATTR Value 50
SYMBOL Voltage -16 96 R0
SYMATTR InstName V2
SYMATTR Value 10
TEXT 352 112 Left 2 !.net I(R1) V1
TEXT 632 120 Left 2 !.ac dec 1001 1G 7G
