Version 4
SHEET 1 1524 680
WIRE 704 0 704 -32
WIRE 128 48 -192 48
WIRE 384 48 128 48
WIRE 624 48 480 48
WIRE 928 48 768 48
WIRE 1232 48 1024 48
WIRE 1472 48 1232 48
WIRE 128 96 128 48
WIRE 1232 96 1232 48
WIRE -192 112 -192 48
WIRE 1472 112 1472 48
WIRE 704 128 704 112
FLAG -192 192 0
FLAG 1472 192 0
FLAG 704 128 0
FLAG 160 96 0
FLAG 160 192 0
FLAG 1264 96 0
FLAG 1264 192 0
FLAG 384 80 0
FLAG 480 80 0
FLAG 928 80 0
FLAG 1024 80 0
FLAG 48 -224 0
FLAG 48 -304 Vcc
FLAG 704 -32 Vcc
SYMBOL Voltage -192 96 R0
WINDOW 123 24 38 Left 2
WINDOW 39 24 60 Left 2
SYMATTR Value2 AC 1 0
SYMATTR SpiceLine Rser=50
SYMATTR InstName V1
SYMATTR Value ""
SYMBOL Res 1456 96 R0
SYMATTR InstName R1
SYMATTR Value 50
SYMBOL ue 688 48 R0
SYMATTR InstName X1
SYMBOL tline 432 64 R0
SYMATTR InstName T1
SYMATTR Value Td=1p Z0=50
SYMBOL tline 976 64 R0
SYMATTR InstName T2
SYMATTR Value Td=60.5p Z0=50
SYMBOL tline 144 144 R90
SYMATTR InstName T3
SYMATTR Value Td=48.25p Z0=50
SYMBOL tline 1248 144 R90
SYMATTR InstName T4
SYMATTR Value Td=39.5p Z0=50
SYMBOL Voltage 48 -320 R0
SYMATTR InstName V2
SYMATTR Value 10
TEXT 720 -296 Left 2 !.ac dec 10k 1G 10G
TEXT 688 -168 Left 2 !.net I(R1) V1
TEXT 456 -192 Left 2 ;.op
