Version 4
SHEET 1 880 856
WIRE 192 -144 192 -192
WIRE -832 -112 -832 -128
WIRE -832 -64 -832 -112
WIRE 192 -16 192 -64
WIRE -832 48 -832 16
WIRE -768 48 -832 48
WIRE -176 80 -176 16
WIRE 192 96 192 64
WIRE 336 96 192 96
WIRE 416 96 400 96
WIRE 192 160 192 96
WIRE -176 224 -176 160
WIRE -96 224 -176 224
WIRE -48 224 -96 224
WIRE 80 224 32 224
WIRE 160 224 80 224
WIRE -96 256 -96 224
WIRE -176 288 -176 224
WIRE 80 320 80 224
WIRE 192 336 192 288
WIRE 304 336 192 336
WIRE 192 368 192 336
WIRE 304 368 304 336
WIRE -176 416 -176 368
WIRE 80 416 80 384
WIRE 304 464 304 432
WIRE 192 496 192 448
WIRE -752 672 -912 672
WIRE -624 672 -752 672
WIRE -496 672 -544 672
WIRE -144 672 -352 672
WIRE -112 672 -144 672
WIRE 0 672 -32 672
WIRE -912 720 -912 672
WIRE -752 720 -752 672
WIRE -144 720 -144 672
WIRE 0 720 0 672
WIRE -912 832 -912 800
WIRE -816 832 -912 832
WIRE -752 832 -752 784
WIRE -752 832 -816 832
WIRE -144 832 -144 800
WIRE -48 832 -144 832
WIRE 0 832 0 800
WIRE 0 832 -48 832
FLAG -176 16 Vcc
IOPIN -176 16 BiDir
FLAG 192 -192 Vcc
IOPIN 192 -192 BiDir
FLAG 80 416 vin
IOPIN 80 416 In
FLAG 416 96 vout
IOPIN 416 96 Out
FLAG -768 48 0
FLAG -832 -112 Vcc
FLAG -352 672 vout
FLAG -496 672 vin
FLAG -816 832 0
FLAG -48 832 0
FLAG -96 320 0
FLAG -176 416 0
FLAG 192 496 0
FLAG 304 464 0
SYMBOL TransistorReal 176 208 R0
SYMATTR InstName X1
SYMBOL ind 48 208 R90
WINDOW 0 5 56 VBottom 2
WINDOW 3 32 56 VTop 2
SYMATTR InstName L1
SYMATTR Value 18µ
SYMBOL ind 208 80 R180
WINDOW 0 36 80 Left 2
WINDOW 3 36 40 Left 2
SYMATTR InstName L2
SYMATTR Value 18µ
SYMBOL Res 176 352 R0
SYMATTR InstName R1
SYMATTR Value 110
SYMBOL Res 176 -160 R0
SYMATTR InstName R2
SYMATTR Value 444
SYMBOL Res -192 64 R0
SYMATTR InstName R3
SYMATTR Value 3.75k
SYMBOL Res -192 272 R0
SYMATTR InstName R4
SYMATTR Value 1k
SYMBOL Cap 288 368 R0
SYMATTR InstName C1
SYMATTR Value 1µ
SYMBOL Cap 64 320 R0
SYMATTR InstName C2
SYMATTR Value 1µ
SYMBOL Cap 400 80 R90
WINDOW 0 0 32 VBottom 2
WINDOW 3 32 32 VTop 2
SYMATTR InstName C3
SYMATTR Value 1µ
SYMBOL Voltage -832 -80 R0
SYMATTR InstName V1
SYMATTR Value 10
SYMBOL Voltage -912 704 R0
WINDOW 123 24 38 Left 2
WINDOW 39 24 60 Left 2
SYMATTR Value2 AC 1 0
SYMATTR SpiceLine Rser=50
SYMATTR InstName V3
SYMATTR Value ""
SYMBOL Cap -768 720 R0
SYMATTR InstName C5
SYMATTR Value 1.89p
SYMBOL ind -528 656 R90
WINDOW 0 5 56 VBottom 2
WINDOW 3 32 56 VTop 2
SYMATTR InstName L3
SYMATTR Value 73.6p
SYMBOL Res -16 704 R0
SYMATTR InstName R5
SYMATTR Value 50
SYMBOL ind -160 704 R0
SYMATTR InstName L4
SYMATTR Value 13.3n
SYMBOL ind -16 656 R90
WINDOW 0 5 56 VBottom 2
WINDOW 3 32 56 VTop 2
SYMATTR InstName L5
SYMATTR Value 3.34n
SYMBOL Cap -112 256 R0
SYMATTR InstName C4
SYMATTR Value 35f
TEXT 248 744 Left 2 !.ac dec 10k 1G 10G
TEXT 256 840 Left 2 !.net I(R5) V3
RECTANGLE Normal -284 -292 572 564 2
