Version 4
SHEET 1 1568 720
WIRE 704 -16 704 -32
WIRE 208 48 -48 48
WIRE 368 48 208 48
WIRE 608 48 464 48
WIRE 928 48 800 48
WIRE 1200 48 1024 48
WIRE 1488 48 1200 48
WIRE 208 96 208 48
WIRE 1200 96 1200 48
WIRE -48 112 -48 48
WIRE 1488 112 1488 48
WIRE 704 128 704 112
FLAG -48 192 0
FLAG 1488 192 0
FLAG 704 128 0
FLAG 240 96 0
FLAG 240 192 0
FLAG 1232 96 0
FLAG 1232 192 0
FLAG 368 80 0
FLAG 464 80 0
FLAG 928 80 0
FLAG 1024 80 0
FLAG 16 -496 0
FLAG 16 -576 Vcc
FLAG 704 -32 Vcc
SYMBOL Voltage -48 96 R0
WINDOW 123 24 38 Left 2
WINDOW 39 24 60 Left 2
SYMATTR Value2 AC 1 0
SYMATTR SpiceLine Rser=50
SYMATTR InstName V1
SYMATTR Value ""
SYMBOL Res 1472 96 R0
SYMATTR InstName Rload
SYMATTR Value 50
SYMBOL ue 688 48 R0
SYMATTR InstName X1
SYMBOL tline 416 64 R0
SYMATTR InstName T1
SYMATTR Value Td=1p Z0=50
SYMBOL tline 976 64 R0
SYMATTR InstName T2
SYMATTR Value Td=60.5p Z0=50
SYMBOL tline 224 144 R90
SYMATTR InstName T3
SYMATTR Value Td=48.25p Z0=50
SYMBOL tline 1216 144 R90
SYMATTR InstName T4
SYMATTR Value Td=39.5p Z0=50
SYMBOL Voltage 16 -592 R0
SYMATTR InstName V2
SYMATTR Value 10
TEXT 688 -568 Left 2 !.ac dec 10k 1G 10G
TEXT 656 -440 Left 2 !.net I(Rload) V1
TEXT 424 -464 Left 2 ;.op
