Version 4
SHEET 1 880 680
WIRE 256 -64 192 -64
WIRE 192 80 192 -64
WIRE -192 144 -400 144
WIRE -48 144 -192 144
WIRE 96 144 16 144
WIRE 432 144 288 144
WIRE 544 144 432 144
WIRE 656 144 608 144
WIRE -192 160 -192 144
WIRE 432 160 432 144
WIRE -400 176 -400 144
WIRE 656 192 656 144
WIRE -192 272 -192 240
WIRE 432 272 432 240
WIRE 656 304 656 272
FLAG -400 256 0
FLAG 656 304 0
FLAG 256 16 0
FLAG 192 224 0
FLAG -192 272 0
FLAG 432 272 0
SYMBOL ue 176 144 R0
WINDOW 0 8 -56 Bottom 2
SYMATTR InstName X1
SYMBOL Voltage -400 160 R0
WINDOW 123 24 38 Left 2
WINDOW 39 24 60 Left 2
SYMATTR Value2 AC 1 0
SYMATTR SpiceLine Rser=50
SYMATTR InstName V1
SYMATTR Value ""
SYMBOL Res 640 176 R0
SYMATTR InstName RLoad
SYMATTR Value 50
SYMBOL voltage 256 -80 R0
WINDOW 123 0 0 Left 0
WINDOW 39 0 0 Left 0
SYMATTR InstName V2
SYMATTR Value 10
SYMBOL ind -208 144 R0
SYMATTR InstName L1
SYMATTR Value 0.801611843n
SYMBOL cap 16 128 R90
WINDOW 0 0 32 VBottom 2
WINDOW 3 32 32 VTop 2
SYMATTR InstName C1
SYMATTR Value 1.16784054p
SYMBOL cap 544 160 R270
WINDOW 0 32 32 VTop 2
WINDOW 3 0 32 VBottom 2
SYMATTR InstName C2
SYMATTR Value 0.607136936p
SYMBOL ind 416 144 R0
SYMATTR InstName L2
SYMATTR Value 2.11061757n
TEXT -528 -112 Left 2 !.ac dec 10k 1G 10G
TEXT -176 80 Left 2 !;.op
TEXT -520 -16 Left 2 !.net I(Rload) V1
