Version 4.1
SHEET 1 880 680
WIRE 256 -64 192 -64
WIRE 192 80 192 -64
WIRE 96 144 -400 144
WIRE 656 144 288 144
WIRE -400 176 -400 144
WIRE 656 192 656 144
WIRE 656 304 656 272
FLAG -400 256 0
FLAG 656 304 0
FLAG 256 16 0
FLAG 192 224 0
SYMBOL ue 176 144 R0
WINDOW 0 8 -56 Bottom 2
SYMATTR InstName X1
SYMBOL Voltage -400 160 R0
WINDOW 123 24 38 Left 2
WINDOW 39 24 60 Left 2
SYMATTR Value2 AC 1 0
SYMATTR SpiceLine Rser=50
SYMATTR InstName V1
SYMATTR Value ""
SYMBOL Res 640 176 R0
SYMATTR InstName RLoad
SYMATTR Value 50
SYMBOL voltage 256 -80 R0
WINDOW 123 0 0 Left 0
WINDOW 39 0 0 Left 0
SYMATTR InstName V2
SYMATTR Value 10
TEXT -528 -112 Left 2 !.ac dec 10k 1G 10G
TEXT -176 80 Left 2 !;.op
TEXT -520 -16 Left 2 !.net I(Rload) V1
