Version 4.1
SHEET 1 880 680
WIRE 368 -64 368 -112
WIRE 368 64 368 16
WIRE 0 160 0 96
WIRE 368 176 368 144
WIRE 512 176 368 176
WIRE 592 176 576 176
WIRE 368 240 368 176
WIRE 0 304 0 240
WIRE 128 304 0 304
WIRE 256 304 208 304
WIRE 336 304 256 304
WIRE 0 368 0 304
WIRE 256 400 256 304
WIRE 368 416 368 368
WIRE 480 416 368 416
WIRE 368 448 368 416
WIRE 480 448 480 416
WIRE 0 496 0 448
WIRE 256 496 256 464
WIRE 480 544 480 512
WIRE 368 576 368 528
FLAG 0 96 Vcc
IOPIN 0 96 BiDir
FLAG 368 -112 Vcc
IOPIN 368 -112 BiDir
FLAG 256 496 vin
IOPIN 256 496 In
FLAG 592 176 vout
IOPIN 592 176 Out
FLAG 0 496 Vss
IOPIN 0 496 BiDir
FLAG 368 576 Vss
IOPIN 368 576 BiDir
FLAG 480 544 Vss
IOPIN 480 544 BiDir
SYMBOL TransistorReal 352 288 R0
SYMATTR InstName X1
SYMBOL ind 224 288 R90
WINDOW 0 5 56 VBottom 2
WINDOW 3 32 56 VTop 2
SYMATTR InstName L1
SYMATTR Value 18µ
SYMBOL ind 384 160 R180
WINDOW 0 36 80 Left 2
WINDOW 3 36 40 Left 2
SYMATTR InstName L2
SYMATTR Value 18µ
SYMBOL Res 352 432 R0
SYMATTR InstName R4
SYMATTR Value 110
SYMBOL Res 352 -80 R0
SYMATTR InstName R3
SYMATTR Value 444
SYMBOL Res -16 144 R0
SYMATTR InstName R1
SYMATTR Value 4k
SYMBOL Res -16 352 R0
SYMATTR InstName R2
SYMATTR Value 1.2k
SYMBOL Cap 464 448 R0
SYMATTR InstName C1
SYMATTR Value 1µ
SYMBOL Cap 240 400 R0
SYMATTR InstName C2
SYMATTR Value 1µ
SYMBOL Cap 576 160 R90
WINDOW 0 0 32 VBottom 2
WINDOW 3 32 32 VTop 2
SYMATTR InstName C3
SYMATTR Value 1µ
TEXT -392 312 Left 2 !.op
TEXT -776 280 Left 2 ;.net I(R5) V2
TEXT -744 184 Left 2 !;.ac dec 10k 100Meg 10G
TEXT -744 184 Left 2 !;.ac dec 10k 100Meg 10G
TEXT -744 184 Left 2 !;.ac dec 10k 100Meg 10G
RECTANGLE Normal -108 -212 748 644 2
